Version 4
SHEET 1 880 680
WIRE 0 128 -80 128
WIRE 48 128 0 128
WIRE 192 128 128 128
WIRE 224 128 192 128
WIRE 224 144 224 128
WIRE -80 192 -80 128
WIRE 224 240 224 224
WIRE -80 336 -80 272
WIRE 128 336 -80 336
WIRE 224 336 224 320
WIRE 224 336 128 336
WIRE 128 352 128 336
FLAG 128 352 0
FLAG 0 128 V1
FLAG 192 128 V2
SYMBOL res 144 112 R90
WINDOW 0 0 56 VBottom 2
WINDOW 3 32 56 VTop 2
SYMATTR InstName R1
SYMATTR Value 15k
SYMBOL ind 208 224 R0
SYMATTR InstName L1
SYMATTR Value 0.1
SYMBOL voltage -80 176 R0
WINDOW 123 0 0 Left 0
WINDOW 39 0 0 Left 0
SYMATTR InstName Vac
SYMATTR Value SINE(0 6 1k 0 0 0 5)
SYMBOL res 208 128 R0
SYMATTR InstName R2
SYMATTR Value 2k
TEXT -72 392 Left 2 !.tran 0 5m 0
